Version 4
SHEET 1 1500 680
WIRE 608 -224 528 -224
WIRE 720 -224 608 -224
WIRE 784 -224 720 -224
WIRE 928 -224 784 -224
WIRE 784 -192 784 -224
WIRE 928 -144 928 -224
WIRE 528 -64 528 -224
WIRE 608 -48 608 -224
WIRE 784 -16 784 -128
WIRE 928 -16 928 -64
WIRE 928 -16 784 -16
WIRE 1120 -16 928 -16
WIRE 784 16 784 -16
WIRE 928 16 928 -16
WIRE 192 64 192 32
WIRE 384 64 192 64
WIRE 528 64 528 16
WIRE 528 64 448 64
WIRE 608 64 608 16
WIRE 608 64 528 64
WIRE 720 64 608 64
WIRE 192 96 192 64
WIRE -160 144 -368 144
WIRE 32 144 32 32
WIRE 32 144 -96 144
WIRE 128 144 32 144
WIRE 784 144 784 112
WIRE 928 144 928 80
WIRE 928 144 784 144
WIRE 784 176 784 144
WIRE -368 224 -368 144
WIRE 32 240 32 144
WIRE 192 240 192 192
WIRE 784 320 784 256
WIRE 32 384 32 320
WIRE 192 384 192 320
FLAG 192 384 0
FLAG 32 384 0
FLAG -480 224 Vcc
FLAG 32 -48 Vcc
FLAG 192 -48 Vcc
FLAG -480 304 0
FLAG -368 304 0
FLAG 720 -224 Vcc
FLAG 784 320 0
FLAG 1120 -16 antenna
SYMBOL npn 128 96 R0
SYMATTR InstName Q1
SYMATTR Value 2N3904
SYMBOL res 16 -64 R0
SYMATTR InstName R1
SYMATTR Value 56k
SYMBOL res 16 224 R0
SYMATTR InstName R2
SYMATTR Value 5.6k
SYMBOL res 176 -64 R0
SYMATTR InstName R3
SYMATTR Value 4.7k
SYMBOL res 176 224 R0
SYMATTR InstName R4
SYMATTR Value 470
SYMBOL cap -96 128 R90
WINDOW 0 0 32 VBottom 2
WINDOW 3 32 32 VTop 2
SYMATTR InstName C2
SYMATTR Value .1µ
SYMBOL cap 448 48 R90
WINDOW 0 0 32 VBottom 2
WINDOW 3 32 32 VTop 2
SYMATTR InstName C3
SYMATTR Value .1µ
SYMBOL voltage -480 208 R0
WINDOW 123 0 0 Left 0
WINDOW 39 0 0 Left 0
SYMATTR InstName V1
SYMATTR Value 9
SYMBOL voltage -368 208 R0
WINDOW 123 24 124 Left 2
WINDOW 39 0 0 Left 0
SYMATTR Value2 AC 1
SYMATTR InstName V2
SYMATTR Value SINE(0 .1 440)
SYMBOL npn 720 16 R0
SYMATTR InstName Q2
SYMATTR Value 2N3904
SYMBOL res 768 160 R0
SYMATTR InstName R5
SYMATTR Value 1k
SYMBOL cap 768 -192 R0
SYMATTR InstName C4
SYMATTR Value 20p
SYMBOL cap 912 16 R0
SYMATTR InstName C5
SYMATTR Value 10p
SYMBOL ind 912 -160 R0
SYMATTR InstName L1
SYMATTR Value .1µ
SYMBOL cap 592 -48 R0
SYMATTR InstName C7
SYMATTR Value .01µ
SYMBOL res 512 -80 R0
SYMATTR InstName R6
SYMATTR Value 10k
TEXT -512 408 Left 2 !.ac dec 200 10meg 150meg
