Version 4
SHEET 1 880 680
WIRE 272 -80 144 -80
WIRE 656 -80 528 -80
WIRE 800 -80 656 -80
WIRE 656 -64 656 -80
WIRE 800 -64 800 -80
WIRE 400 48 400 16
WIRE 656 48 656 16
WIRE 656 48 400 48
WIRE 800 48 800 16
WIRE 656 64 656 48
WIRE 144 112 144 -80
WIRE 656 192 656 144
FLAG 144 192 0
FLAG 144 -80 I
FLAG 656 192 0
FLAG 800 48 0
FLAG 800 -80 O
SYMBOL voltage 144 96 R0
WINDOW 123 0 0 Left 0
WINDOW 39 0 0 Left 0
SYMATTR InstName V1
SYMATTR Value SINE(4.5 100M 50 0)
SYMBOL PowerProducts\\LT1086 400 -80 R0
SYMATTR InstName U1
SYMBOL res 640 -80 R0
SYMATTR InstName R1
SYMATTR Value 200
SYMBOL res 640 48 R0
SYMATTR InstName R2
SYMATTR Value 200
SYMBOL res 784 -80 R0
SYMATTR InstName R3
SYMATTR Value 2K
TEXT 344 104 Left 2 !.tran 200m
