Version 4
SHEET 1 1048 680
WIRE 272 16 144 16
WIRE 400 16 272 16
WIRE 144 48 144 16
WIRE 288 112 256 112
WIRE 400 112 400 16
WIRE 400 112 352 112
WIRE 464 112 400 112
WIRE 576 112 528 112
WIRE 576 160 576 112
WIRE 640 160 576 160
WIRE 688 160 640 160
WIRE 848 160 768 160
WIRE 992 160 848 160
WIRE 144 176 144 128
WIRE 144 176 16 176
WIRE 848 192 848 160
WIRE 992 192 992 160
WIRE 16 208 16 176
WIRE 144 208 144 176
WIRE 256 224 256 112
WIRE 288 224 256 224
WIRE 400 224 352 224
WIRE 464 224 400 224
WIRE 576 224 576 160
WIRE 576 224 528 224
WIRE 144 304 144 288
WIRE 256 304 144 304
WIRE 400 304 400 224
WIRE 400 304 256 304
WIRE 848 336 848 256
WIRE 992 336 992 272
FLAG 16 208 0
FLAG 992 336 0
FLAG 256 304 i-
FLAG 272 16 i+
FLAG 992 160 o
FLAG 848 336 0
FLAG 640 160 ob
SYMBOL voltage 144 32 R0
WINDOW 3 -233 88 Left 2
WINDOW 123 0 0 Left 0
WINDOW 39 0 0 Left 0
SYMATTR InstName V1
SYMATTR Value SINE(0 5 50 0 0 0)
SYMBOL voltage 144 304 R180
WINDOW 0 24 96 Left 2
WINDOW 3 24 16 Left 2
WINDOW 123 0 0 Left 0
WINDOW 39 0 0 Left 0
SYMATTR InstName V2
SYMATTR Value SINE(0 5 50 0 0 180)
SYMBOL diode 288 128 R270
WINDOW 0 32 32 VTop 2
WINDOW 3 0 32 VBottom 2
SYMATTR InstName D1
SYMATTR Value 1N4148
SYMBOL diode 288 240 R270
WINDOW 0 32 32 VTop 2
WINDOW 3 0 32 VBottom 2
SYMATTR InstName D2
SYMATTR Value 1N4148
SYMBOL diode 464 128 R270
WINDOW 0 32 32 VTop 2
WINDOW 3 0 32 VBottom 2
SYMATTR InstName D3
SYMATTR Value 1N4148
SYMBOL diode 464 240 R270
WINDOW 0 32 32 VTop 2
WINDOW 3 0 32 VBottom 2
SYMATTR InstName D4
SYMATTR Value 1N4148
SYMBOL res 976 176 R0
SYMATTR InstName R1
SYMATTR Value 2k
SYMBOL res 784 144 R90
WINDOW 0 0 56 VBottom 2
WINDOW 3 32 56 VTop 2
SYMATTR InstName R2
SYMATTR Value {Rf}
SYMBOL cap 832 192 R0
SYMATTR InstName C1
SYMATTR Value 47µ
TEXT 536 32 Left 2 !.tran 50m\n.param Rf=10\n.step param Rf list 10 200
