* PSpice Model Editor - Version 10.0.0

*$
.MODEL CMOSN NMOS
+LEVEL   = 7
+TNOM    = 27             TOX     = 1.4E-8
+XJ      = 1.5E-7         NCH     = 1.7E17         VTH0    = 0.6504635
+K1      = 0.8746745      K2      = -0.095286      K3      = 25.8669251
+K3B     = -8.1329571     W0      = 1E-8           NLX     = 1E-9
+DVT0W   = 0              DVT1W   = 0              DVT2W   = 0
+DVT0    = 3.7027088      DVT1    = 0.4081267      DVT2    = -0.0951375
+U0      = 452.5818982    UA      = 1E-13          UB      = 1.351173E-18
+UC      = 1.320003E-11   VSAT    = 1.634161E5     A0      = 0.584538
+AGS     = 0.1301126      B0      = 2.597673E-6    B1      = 5E-6
+KETA    = -1.873074E-3   A1      = 2.638137E-5    A2      = 0.3568781
+RDSW    = 1.119403E3     PRWG    = 0.0965152      PRWB    = 0.0525933
+WR      = 1              WINT    = 2.34158E-7     LINT    = 2.78549E-8
+XL      = 0              XW      = 0              DWG     = -5.327466E-9
+DWB     = 5.059005E-8    VOFF    = 0              NFACTOR = 0.6752588
+CIT     = 0              CDSC    = 2.4E-4         CDSCD   = 0
+CDSCB   = 0              ETA0    = 0.033081       ETAB    = -8.668093E-4
+DSUB    = 0.2696579      PCLM    = 2.6278886      PDIBLC1 = -0.1057097
+PDIBLC2 = 2.351583E-3    PDIBLCB = -0.1083294     DROUT   = 0.524785
+PSCBE1  = 5.779271E8     PSCBE2  = 7.967419E-5    PVAG    = 0
+DELTA   = 0.01           RSH     = 79.6           MOBMOD  = 1
+PRT     = 0              UTE     = -1.5           KT1     = -0.11
+KT1L    = 0              KT2     = 0.022          UA1     = 4.31E-9
+UB1     = -7.61E-18      UC1     = -5.6E-11       AT      = 3.3E4
+WL      = 0              WLN     = 1              WW      = 0
+WWN     = 1              WWL     = 0              LL      = 0
+LLN     = 1              LW      = 0              LWN     = 1
+LWL     = 0              CAPMOD  = 2              XPART   = 0.5
+CGDO    = 2E-10          CGSO    = 2E-10          CGBO    = 1E-9
+CJ      = 4.207238E-4    PB      = 0.99           MJ      = 0.4467295
+CJSW    = 3.278766E-10   PBSW    = 0.1            MJSW    = 0.1170135
+CJSWG   = 1.64E-10       PBSWG   = 0.1            MJSWG   = 0.1170135
+CF      = 0              PVTH0   = 0.0922528      PRDSW   = -82.8292207
+PK2     = -0.0346707     WKETA   = -0.0313611     LKETA   = 2.322883E-3     
+KF      = 2E-25          AF      = 0.72

*$

.MODEL CMOSP PMOS
+LEVEL   = 7
+TNOM    = 27             TOX     = 1.4E-8
+XJ      = 1.5E-7         NCH     = 1.7E17         VTH0    = -0.9389796
+K1      = 0.5444682      K2      = 0.0106353      K3      = 6.8448507
+K3B     = -0.9586589     W0      = 1E-8           NLX     = 1E-9
+DVT0W   = 0              DVT1W   = 0              DVT2W   = 0
+DVT0    = 2.5777567      DVT1    = 0.5355618      DVT2    = -0.1150725
+U0      = 218.7592379    UA      = 3.029461E-9    UB      = 1E-21
+UC      = -5.63508E-11   VSAT    = 1.802653E5     A0      = 0.853557
+AGS     = 0.1404404      B0      = 9.750013E-7    B1      = 5E-6
+KETA    = -2.31738E-3    A1      = 0              A2      = 0.3
+RDSW    = 2.794425E3     PRWG    = -0.0480948     PRWB    = -0.0497553
+WR      = 1              WINT    = 3.108014E-7    LINT    = 5.97566E-8
+XL      = 0              XW      = 0              DWG     = -1.946812E-8
+DWB     = 1.719309E-8    VOFF    = -0.0499515     NFACTOR = 0.9056269
+CIT     = 0              CDSC    = 2.4E-4         CDSCD   = 0
+CDSCB   = 0              ETA0    = 0.1573906      ETAB    = -0.0679048
+DSUB    = 0.9942396      PCLM    = 2.1804315      PDIBLC1 = 0.0840679
+PDIBLC2 = 4.063444E-3    PDIBLCB = -0.0510685     DROUT   = 0.2686389
+PSCBE1  = 1.323899E10    PSCBE2  = 1.289795E-9    PVAG    = 0
+DELTA   = 0.01           RSH     = 101.9          MOBMOD  = 1
+PRT     = 0              UTE     = -1.5           KT1     = -0.11
+KT1L    = 0              KT2     = 0.022          UA1     = 4.31E-9
+UB1     = -7.61E-18      UC1     = -5.6E-11       AT      = 3.3E4
+WL      = 0              WLN     = 1              WW      = 0
+WWN     = 1              WWL     = 0              LL      = 0
+LLN     = 1              LW      = 0              LWN     = 1
+LWL     = 0              CAPMOD  = 2              XPART   = 0.5
+CGDO    = 2.52E-10       CGSO    = 2.52E-10       CGBO    = 1E-9
+CJ      = 7.268804E-4    PB      = 0.9504934      MJ      = 0.4954068
+CJSW    = 2.648094E-10   PBSW    = 0.99           MJSW    = 0.2940441
+CJSWG   = 6.4E-11        PBSWG   = 0.99           MJSWG   = 0.2940441
+CF      = 0              PVTH0   = 5.98016E-3     PRDSW   = 14.8598424
+PK2     = 3.73981E-3     WKETA   = 1.999387E-3    LKETA   = -5.675893E-3    
+KF      = 3.5E-25        AF      = 0.95
*$
