Version 4
SHEET 1 2356 680
WIRE 1728 -656 1680 -656
WIRE 1872 -656 1808 -656
WIRE 1680 -544 1680 -656
WIRE 1728 -544 1680 -544
WIRE 1872 -544 1872 -656
WIRE 1872 -544 1792 -544
WIRE 768 -496 656 -496
WIRE 864 -496 768 -496
WIRE 1104 -496 944 -496
WIRE 1104 -464 1008 -464
WIRE 1472 -416 1280 -416
WIRE 1680 -416 1680 -544
WIRE 1680 -416 1552 -416
WIRE 1728 -416 1680 -416
WIRE 1872 -400 1872 -544
WIRE 1872 -400 1792 -400
WIRE 1952 -400 1872 -400
WIRE 2144 -400 2016 -400
WIRE 1728 -384 1680 -384
WIRE 1008 -368 1008 -384
WIRE 1104 -368 1008 -368
WIRE 2144 -368 2144 -400
WIRE 1680 -352 1680 -384
WIRE 768 -336 656 -336
WIRE 864 -336 768 -336
WIRE 1104 -336 944 -336
WIRE 1216 -336 1216 -352
FLAG 384 -208 in_pos
FLAG 544 -128 0
FLAG 464 -128 0
FLAG 464 -208 V+
FLAG 544 -208 V-
FLAG 384 -128 in_neg
FLAG 1136 -512 V+
FLAG 1136 -320 V-
FLAG 592 -496 in_pos
FLAG 592 -336 in_neg
FLAG 768 -256 0
FLAG 768 -576 0
FLAG 1760 -432 V+
FLAG 1760 -368 V-
FLAG 2144 -288 0
FLAG 2144 -400 output
FLAG 1680 -352 0
FLAG 1216 -336 0
SYMBOL voltage 464 -224 R0
WINDOW 123 0 0 Left 0
WINDOW 39 0 0 Left 0
SYMATTR InstName V1
SYMATTR Value 5
SYMBOL voltage 544 -224 R0
WINDOW 123 0 0 Left 0
WINDOW 39 0 0 Left 0
SYMATTR InstName V2
SYMATTR Value -5
SYMBOL voltage 384 -224 R0
WINDOW 3 -49 -93 VRight 2
WINDOW 123 0 0 Left 0
WINDOW 39 0 0 Left 0
SYMATTR Value SINE(0 1m 50)
SYMATTR InstName V3
SYMBOL OpAmps\\AD8226 1136 -416 R0
SYMATTR InstName U1
SYMBOL res 752 -592 R0
SYMATTR InstName R1
SYMATTR Value 1Meg
SYMBOL res 752 -352 R0
SYMATTR InstName R2
SYMATTR Value 1Meg
SYMBOL res 960 -352 R90
WINDOW 0 0 56 VBottom 2
WINDOW 3 32 56 VTop 2
SYMATTR InstName R3
SYMATTR Value 4.7k
SYMBOL res 960 -512 R90
WINDOW 0 0 56 VBottom 2
WINDOW 3 32 56 VTop 2
SYMATTR InstName R4
SYMATTR Value 4.7k
SYMBOL res 992 -480 R0
SYMATTR InstName R5
SYMATTR Value 2.6k
SYMBOL cap 656 -512 R90
WINDOW 0 0 32 VBottom 2
WINDOW 3 32 32 VTop 2
SYMATTR InstName C1
SYMATTR Value 100n
SYMBOL cap 656 -352 R90
WINDOW 0 0 32 VBottom 2
WINDOW 3 32 32 VTop 2
SYMATTR InstName C2
SYMATTR Value 100n
SYMBOL OpAmps\\LT1792 1760 -464 R0
SYMATTR InstName U2
SYMBOL cap 1792 -560 R90
WINDOW 0 0 32 VBottom 2
WINDOW 3 32 32 VTop 2
SYMATTR InstName C3
SYMATTR Value 4.7n
SYMBOL res 1568 -432 R90
WINDOW 0 0 56 VBottom 2
WINDOW 3 32 56 VTop 2
SYMATTR InstName R10
SYMATTR Value 10k
SYMBOL res 1824 -672 R90
WINDOW 0 0 56 VBottom 2
WINDOW 3 32 56 VTop 2
SYMATTR InstName R11
SYMATTR Value 1Meg
SYMBOL cap 2016 -416 R90
WINDOW 0 0 32 VBottom 2
WINDOW 3 32 32 VTop 2
SYMATTR InstName C5
SYMATTR Value 100n
SYMBOL res 2160 -272 R180
WINDOW 0 36 76 Left 2
WINDOW 3 36 40 Left 2
SYMATTR InstName R12
SYMATTR Value 1Meg
TEXT 456 -64 Left 2 !.tran 30m
