Version 4
SHEET 1 1416 680
WIRE -800 -688 -800 -736
WIRE -544 -688 -544 -736
WIRE -704 -640 -736 -640
WIRE -608 -640 -704 -640
WIRE -800 -576 -800 -592
WIRE -704 -576 -704 -640
WIRE -704 -576 -800 -576
WIRE -544 -576 -544 -592
WIRE 208 -576 -544 -576
WIRE 208 -544 208 -576
WIRE -800 -496 -800 -576
WIRE -544 -496 -544 -576
WIRE 304 -496 304 -528
WIRE 304 -496 272 -496
WIRE 304 -464 304 -496
WIRE -448 -448 -480 -448
WIRE -448 -432 -448 -448
WIRE 1008 -368 1008 -400
WIRE -800 -336 -800 -400
WIRE -672 -336 -800 -336
WIRE -544 -336 -544 -400
WIRE -544 -336 -672 -336
WIRE 208 -336 208 -448
WIRE 768 -336 208 -336
WIRE -1056 -304 -1056 -320
WIRE 832 -256 832 -288
WIRE 1008 -256 1008 -288
WIRE 1008 -256 832 -256
WIRE 1072 -256 1008 -256
WIRE -400 -224 -400 -256
WIRE 16 -176 16 -192
WIRE 112 -176 16 -176
WIRE 16 -144 16 -176
WIRE 208 -144 208 -336
WIRE 640 -144 640 -160
WIRE 736 -144 640 -144
WIRE -400 -128 -400 -144
WIRE -400 -128 -496 -128
WIRE 640 -112 640 -144
WIRE 832 -112 832 -256
WIRE -672 -96 -672 -336
WIRE -400 -96 -400 -128
WIRE 112 -96 112 -176
WIRE 112 -96 80 -96
WIRE 144 -96 112 -96
WIRE 736 -64 736 -144
WIRE 736 -64 704 -64
WIRE 768 -64 736 -64
WIRE -496 -48 -496 -128
WIRE -496 -48 -608 -48
WIRE -464 -48 -496 -48
WIRE 16 16 16 -48
WIRE 112 16 16 16
WIRE 208 16 208 -48
WIRE 208 16 112 16
WIRE -672 48 -672 0
WIRE -400 48 -400 0
WIRE 640 48 640 -16
WIRE 736 48 640 48
WIRE 832 48 832 -16
WIRE 832 48 736 48
WIRE 112 96 112 16
WIRE 736 128 736 48
FLAG -1264 -224 0
FLAG -1264 -304 Vcc
FLAG -1152 -224 0
FLAG -1152 -304 Vee
FLAG -1056 -224 0
FLAG -1056 -320 in
FLAG -672 48 Vee
FLAG -864 -448 in
FLAG 1072 -256 out
FLAG -400 48 Vee
FLAG -400 -256 Vcc
FLAG -800 -736 Vcc
FLAG -544 -736 Vcc
FLAG 112 96 Vee
FLAG 304 -384 0
FLAG 304 -608 Vcc
FLAG 832 -384 Vcc
FLAG 16 -272 Vcc
FLAG 736 128 Vee
FLAG 640 -240 Vcc
FLAG -448 -368 0
FLAG 1008 -400 Vfb
FLAG -448 -448 Vfb
SYMBOL voltage -1264 -320 R0
WINDOW 123 0 0 Left 0
WINDOW 39 0 0 Left 0
SYMATTR InstName V2
SYMATTR Value 5
SYMBOL npn -864 -496 R0
SYMATTR InstName Q1
SYMATTR Value 2N3904
SYMBOL voltage -1152 -320 R0
WINDOW 123 0 0 Left 0
WINDOW 39 0 0 Left 0
SYMATTR InstName V3
SYMATTR Value -5
SYMBOL voltage -1056 -320 R0
WINDOW 123 24 44 Left 2
WINDOW 39 0 0 Left 0
SYMATTR Value2 AC 1
SYMATTR InstName V4
SYMATTR Value SINE(0 100u 10k)
SYMBOL npn -480 -496 M0
SYMATTR InstName Q2
SYMATTR Value 2N3904
SYMBOL npn -608 -96 M0
SYMATTR InstName Q4
SYMATTR Value 2N3904
SYMBOL pnp 272 -448 R180
SYMATTR InstName Q5
SYMATTR Value 2N3906
SYMBOL npn 80 -144 M0
SYMATTR InstName Q6
SYMATTR Value 2N3904
SYMBOL npn 144 -144 R0
SYMATTR InstName Q7
SYMATTR Value 2N3904
SYMBOL npn -464 -96 R0
SYMATTR InstName Q8
SYMATTR Value 2N3904
SYMBOL res -416 -240 R0
SYMATTR InstName R3
SYMATTR Value 2.2k
SYMBOL pnp -736 -592 R180
SYMATTR InstName Q9
SYMATTR Value 2N3906
SYMBOL pnp -608 -592 M180
SYMATTR InstName Q10
SYMATTR Value 2N3906
SYMBOL res 320 -624 M0
SYMATTR InstName R4
SYMATTR Value 2k
SYMBOL res 320 -480 M0
SYMATTR InstName R5
SYMATTR Value 3k
SYMBOL npn 768 -384 R0
SYMATTR InstName Q14
SYMATTR Value 2N3904
SYMBOL res 0 -288 R0
SYMATTR InstName R1
SYMATTR Value 20k
SYMBOL npn 704 -112 M0
SYMATTR InstName Q3
SYMATTR Value 2N3904
SYMBOL npn 768 -112 R0
SYMATTR InstName Q11
SYMATTR Value 2N3904
SYMBOL res 624 -256 R0
SYMATTR InstName R8
SYMATTR Value 1k
SYMBOL cap -464 -432 R0
SYMATTR InstName C2
SYMATTR Value 1
SYMBOL res 992 -384 R0
SYMATTR InstName R2
SYMATTR Value 1k
TEXT -1464 -56 Left 2 !.tran 0 0.5m 10u
TEXT -1472 0 Left 2 ;.ac dec 20 10 1g
TEXT -1456 -80 Left 2 ;.op
TEXT -800 232 Left 2 ;Stage 1 - Differential with current < 5mA
TEXT -80 232 Left 2 ;Stage 2 - Cascode with current < 1mA
TEXT 568 232 Left 2 ;Stage 3 - Emitter follower with current < 10mA
TEXT -1472 32 Left 2 !;.meas ac max_gain max mag(V(out))\n;.meas ac db3_gain param max_gain/sqrt(2)\n;.meas ac db3_freq  find freq when mag(V(out))=db3_gain
