Version 4
SHEET 1 1620 680
WIRE 352 -32 48 -32
WIRE 784 -32 480 -32
WIRE 1184 -32 880 -32
WIRE 1616 -32 1312 -32
WIRE -496 96 -496 64
WIRE 192 112 192 64
WIRE 624 112 624 64
WIRE 1024 112 1024 64
WIRE 1456 112 1456 64
WIRE 48 160 48 -32
WIRE 112 160 48 160
WIRE 304 160 272 160
WIRE 480 160 480 -32
WIRE 544 160 480 160
WIRE 736 160 704 160
WIRE 880 160 880 -32
WIRE 944 160 880 160
WIRE 1136 160 1104 160
WIRE 1312 160 1312 -32
WIRE 1376 160 1312 160
WIRE 1568 160 1536 160
WIRE -688 176 -688 64
WIRE -624 176 -624 64
WIRE 112 208 48 208
WIRE 352 208 352 -32
WIRE 352 208 288 208
WIRE 544 208 352 208
WIRE 784 208 784 -32
WIRE 784 208 720 208
WIRE 944 208 784 208
WIRE 1184 208 1184 -32
WIRE 1184 208 1120 208
WIRE 1376 208 1184 208
WIRE 1616 208 1616 -32
WIRE 1616 208 1552 208
WIRE 192 304 192 256
WIRE 624 304 624 256
WIRE 1024 304 1024 256
WIRE 1456 304 1456 256
WIRE 800 448 736 448
WIRE 800 480 736 480
FLAG 192 64 preset
FLAG 304 160 C0
FLAG 624 64 preset
FLAG 736 160 C1
FLAG 1024 64 preset
FLAG 1136 160 C2
FLAG 1456 64 preset
FLAG 1568 160 C3
FLAG 192 304 clear
FLAG 624 304 clear
FLAG 1024 304 clear
FLAG 1456 304 clear
FLAG -688 64 clear
FLAG 736 448 C0
FLAG 736 480 C3
FLAG -624 176 0
FLAG -496 176 0
FLAG -624 64 preset
FLAG -496 64 clock
FLAG 48 208 clock
FLAG -688 176 0
SYMBOL Digital\\dflop 192 112 R0
SYMATTR InstName A1
SYMATTR SpiceLine Td=30n Trise=1n
SYMBOL Digital\\dflop 624 112 R0
SYMATTR InstName A2
SYMATTR SpiceLine Td=30n Trise=1n
SYMBOL Digital\\dflop 1024 112 R0
SYMATTR InstName A3
SYMATTR SpiceLine Td=30n Trise=1n
SYMBOL Digital\\dflop 1456 112 R0
SYMATTR InstName A4
SYMATTR SpiceLine Td=30n Trise=1n
SYMBOL Digital\\and 832 416 R0
SYMATTR InstName A5
SYMATTR SpiceLine2 tripdt=5n
SYMATTR SpiceLine Td=30n Trise=1n
SYMBOL voltage -496 80 R0
WINDOW 123 0 0 Left 0
WINDOW 39 0 0 Left 0
SYMATTR InstName V2
SYMATTR Value PULSE(0 1 10u 1n 1n 50u 100u)
TEXT -536 328 Left 2 !.tran 2m
