2
5
.op
0
2
.dc V1 -5 5 200m
2
1
Net-(D1-Pad1)
V
1
Net-(D1-Pad2)
V
