Version 4
SHEET 1 1620 680
WIRE 256 0 224 0
WIRE 368 0 320 0
WIRE 448 0 368 0
WIRE 1008 0 880 0
WIRE -304 16 -336 16
WIRE -192 16 -240 16
WIRE -112 16 -192 16
WIRE 880 32 880 0
WIRE -560 48 -560 16
WIRE 224 48 224 0
WIRE 448 48 224 48
WIRE -336 64 -336 16
WIRE -112 64 -336 64
WIRE -768 80 -768 48
WIRE -672 80 -672 48
WIRE 688 96 688 64
WIRE 688 96 672 96
WIRE 736 96 688 96
WIRE 832 96 832 64
WIRE 832 96 816 96
WIRE 224 112 112 112
WIRE 448 112 224 112
WIRE -112 128 -144 128
WIRE 880 160 880 96
FLAG -768 48 +5
FLAG -768 160 0
FLAG -672 160 0
FLAG -672 48 R
FLAG -192 -64 +5
FLAG -112 160 +5
FLAG -112 240 R
FLAG 224 112 Q1
FLAG 368 -80 +5
FLAG 448 144 +5
FLAG 448 224 R
FLAG 688 64 Q2
FLAG -144 128 Q2
FLAG -560 128 0
FLAG -560 16 s
FLAG 880 160 0
FLAG 880 -80 s
FLAG 832 64 g
FLAG 1008 0 o
SYMBOL voltage -768 64 R0
WINDOW 123 0 0 Left 0
WINDOW 39 0 0 Left 0
WINDOW 3 -12 126 Left 2
SYMATTR Value 5
SYMATTR InstName V1
SYMBOL voltage -672 64 R0
WINDOW 123 0 0 Left 0
WINDOW 39 0 0 Left 0
WINDOW 3 -12 126 Left 2
SYMATTR Value PULSE(0 5 1u 1n 1n 1 2 1)
SYMATTR InstName V3
SYMBOL 74HC\\74hc123 0 -48 R0
SYMATTR InstName U1
SYMBOL res -208 -80 R0
SYMATTR InstName R1
SYMATTR Value 3.3k
SYMBOL cap -240 0 R90
WINDOW 0 0 32 VBottom 2
WINDOW 3 32 32 VTop 2
SYMATTR InstName C1
SYMATTR Value 100n
SYMBOL 74HC\\74hc123 560 -64 R0
SYMATTR InstName U2
SYMBOL res 352 -96 R0
SYMATTR InstName R2
SYMATTR Value 1k
SYMBOL cap 320 -16 R90
WINDOW 0 0 32 VBottom 2
WINDOW 3 32 32 VTop 2
SYMATTR InstName C2
SYMATTR Value 100n
SYMBOL voltage -560 32 R0
WINDOW 123 0 0 Left 0
WINDOW 39 0 0 Left 0
WINDOW 3 -12 126 Left 2
SYMATTR Value SINE(0 5 6k 0)
SYMATTR InstName V2
SYMBOL res 832 80 R90
WINDOW 0 0 56 VBottom 2
WINDOW 3 32 56 VTop 2
SYMATTR InstName R3
SYMATTR Value 1k
SYMBOL res 864 -96 R0
SYMATTR InstName R4
SYMATTR Value 10k
SYMBOL Misc\\SCR 864 32 R0
SYMATTR InstName U4
SYMATTR Value 2N5062
TEXT -912 320 Left 2 !.tran 1m\n.inc 74HC.lib\n.inc 352.lib
