Version 4
SHEET 1 1620 680
WIRE 256 0 224 0
WIRE 368 0 320 0
WIRE 448 0 368 0
WIRE -304 16 -336 16
WIRE -192 16 -240 16
WIRE -112 16 -192 16
WIRE 224 48 224 0
WIRE 448 48 224 48
WIRE -336 64 -336 16
WIRE -112 64 -336 64
WIRE -672 80 -672 48
WIRE 224 112 112 112
WIRE 448 112 224 112
WIRE -896 128 -896 96
WIRE -800 128 -800 96
FLAG -896 96 +5
FLAG -800 208 0
FLAG -800 96 ck
FLAG -896 208 0
FLAG -672 160 0
FLAG -672 48 R
FLAG -192 -64 +5
FLAG -112 160 +5
FLAG -112 240 R
FLAG -112 128 ck
FLAG 224 112 Q1
FLAG 368 -80 +5
FLAG 448 144 +5
FLAG 448 224 R
FLAG 672 96 Q2
SYMBOL voltage -800 112 R0
WINDOW 123 0 0 Left 0
WINDOW 39 0 0 Left 0
WINDOW 3 -12 126 Left 2
SYMATTR Value PULSE(5 0 10u 1n 1n 250u 500u 10)
SYMATTR InstName V2
SYMBOL voltage -896 112 R0
WINDOW 123 0 0 Left 0
WINDOW 39 0 0 Left 0
WINDOW 3 -12 126 Left 2
SYMATTR Value 5
SYMATTR InstName V1
SYMBOL voltage -672 64 R0
WINDOW 123 0 0 Left 0
WINDOW 39 0 0 Left 0
WINDOW 3 -12 126 Left 2
SYMATTR Value PULSE(0 5 1u 1n 1n 1 2 1)
SYMATTR InstName V3
SYMBOL 74HC\\74hc123 0 -48 R0
SYMATTR InstName U1
SYMBOL res -208 -80 R0
SYMATTR InstName R1
SYMATTR Value 3.3k
SYMBOL cap -240 0 R90
WINDOW 0 0 32 VBottom 2
WINDOW 3 32 32 VTop 2
SYMATTR InstName C1
SYMATTR Value 100n
SYMBOL 74HC\\74hc123 560 -64 R0
SYMATTR InstName U2
SYMBOL res 352 -96 R0
SYMATTR InstName R2
SYMATTR Value 1k
SYMBOL cap 320 -16 R90
WINDOW 0 0 32 VBottom 2
WINDOW 3 32 32 VTop 2
SYMATTR InstName C2
SYMATTR Value 100n
TEXT -912 320 Left 2 !.tran 1m\n.inc 74HC.lib
