Version 4
SHEET 1 1920 680
WIRE 432 -640 384 -640
WIRE 784 -640 512 -640
WIRE 976 -640 784 -640
WIRE 384 -544 384 -640
WIRE 432 -544 384 -544
WIRE 544 -544 496 -544
WIRE 864 -432 864 -480
WIRE 464 -416 464 -448
WIRE 256 -400 176 -400
WIRE 384 -400 384 -544
WIRE 384 -400 336 -400
WIRE 432 -400 384 -400
WIRE 544 -384 544 -544
WIRE 544 -384 496 -384
WIRE 688 -384 544 -384
WIRE 784 -384 688 -384
WIRE 976 -384 976 -640
WIRE 976 -384 944 -384
WIRE 1008 -384 976 -384
WIRE 1120 -384 1088 -384
WIRE 1152 -384 1120 -384
WIRE 432 -368 400 -368
WIRE 1120 -352 1120 -384
WIRE 400 -336 400 -368
WIRE 720 -336 688 -336
WIRE 784 -336 720 -336
WIRE 464 -320 464 -352
WIRE 720 -272 720 -336
WIRE 864 -256 864 -288
FLAG -224 -208 input
FLAG -64 -128 0
FLAG -144 -128 0
FLAG -224 -128 0
FLAG -144 -208 V+
FLAG -64 -208 V-
FLAG 176 -400 input
FLAG 464 -448 V+
FLAG 464 -320 V-
FLAG 400 -336 0
FLAG 1152 -384 output
FLAG 64 -128 0
FLAG 64 -208 clk
FLAG 784 -640 q
FLAG 688 -384 oa
FLAG 688 -336 clk
FLAG 720 -192 0
FLAG 864 -480 V-
FLAG 864 -256 V-
FLAG 1120 -288 0
SYMBOL voltage -144 -224 R0
WINDOW 123 0 0 Left 0
WINDOW 39 0 0 Left 0
SYMATTR InstName V1
SYMATTR Value 3
SYMBOL voltage -64 -224 R0
WINDOW 123 0 0 Left 0
WINDOW 39 0 0 Left 0
SYMATTR InstName V2
SYMATTR Value -3
SYMBOL voltage -224 -224 R0
WINDOW 3 -49 -93 VRight 2
WINDOW 123 0 0 Left 0
WINDOW 39 0 0 Left 0
SYMATTR Value SINE(0 2 100)
SYMATTR InstName V3
SYMBOL OpAmps\\OP27 464 -448 R0
SYMATTR InstName U2
SYMBOL voltage 64 -224 R0
WINDOW 3 -48 -325 VRight 2
WINDOW 123 0 0 Left 0
WINDOW 39 0 0 Left 0
SYMATTR InstName V4
SYMATTR Value PULSE(-3 3 0 10n 10n 25u 50u 2000)
SYMBOL res 352 -416 R90
WINDOW 0 0 56 VBottom 2
WINDOW 3 32 56 VTop 2
SYMATTR InstName R1
SYMATTR Value 10k
SYMBOL res 1104 -400 R90
WINDOW 0 0 56 VBottom 2
WINDOW 3 32 56 VTop 2
SYMATTR InstName R2
SYMATTR Value 100k
SYMBOL res 736 -176 R180
WINDOW 0 36 76 Left 2
WINDOW 3 36 40 Left 2
SYMATTR InstName R3
SYMATTR Value 10k
SYMBOL Digital\\dflop 864 -432 R0
SYMATTR InstName A1
SYMATTR SpiceLine Vhigh=3 Vlow=-3 Trise=10n Tfall=10n
SYMBOL res 528 -656 R90
WINDOW 0 0 56 VBottom 2
WINDOW 3 32 56 VTop 2
SYMATTR InstName R4
SYMATTR Value 10k
SYMBOL cap 496 -560 R90
WINDOW 0 0 32 VBottom 2
WINDOW 3 32 32 VTop 2
SYMATTR InstName C1
SYMATTR Value 100n
SYMBOL cap 1104 -352 R0
SYMATTR InstName C2
SYMATTR Value 10n
TEXT -224 -56 Left 2 !.tran 30m
